18

C      -0.7487798402     0.0000000000     0.5511274366
C      -1.5947707452     0.0000000000    -0.5483651878
H      -2.6563583743     0.0000000000    -0.3181972367
C      -1.2628648085     0.0000000000    -1.9039171278
H      -2.1004885786     0.0000000000    -2.5907702075
C       0.0000000000     0.0000000000    -2.4969737813
H       0.0000000000     0.0000000000    -3.5812257813
C       1.2628648085    -0.0000000000    -1.9039171278
H       2.1004885786    -0.0000000000    -2.5907702075
C       1.5947707452    -0.0000000000    -0.5483651878
H       2.6563583743    -0.0000000000    -0.3181972367
C       0.7487798402    -0.0000000000     0.5511274366
C       1.1497185402    -0.0000000000     1.8950553835
H       2.1735164154    -0.0000000000     2.2369636373
C      -1.1497185402     0.0000000000     1.8950553835
H      -2.1735164154     0.0000000000     2.2369636373
C       0.0000000000     0.0000000000     2.6999190230
H       0.0000000000     0.0000000000     3.7807540230
