7

N       0.1415707587     0.0000068667    -0.0105875846
O       0.7541856773     1.1999420537     0.0028619312
O       0.7548610567    -1.1995833313     0.0028566757
C      -1.3419829528    -0.0004046477    -0.0019351192
H      -1.6793721042    -0.9051816521    -0.4907698417
H      -1.6793420174     0.8970928898    -0.5040300153
H      -1.6527573449     0.0075988019     1.0347748090
