36

C      -0.4853494105    -1.8278372115     0.2449486496
C      -1.8842165843    -1.4520403736    -0.1305742791
C      -2.2127282575    -0.0352183479    -0.3957667234
C      -1.2868066209     0.9401376654    -0.1811692862
C       0.0884501507     0.5735709103     0.2571293596
C       0.4572828641    -0.8660510295     0.3997556317
O      -2.7626261600    -2.3133030407    -0.1898200046
O       0.9140590206     1.4556907574     0.4983266637
O      -3.4542093973     0.2254103746    -0.8881280236
C      -4.4078997055     0.7202498527     0.0752416530
O      -1.6178893123     2.2269019909    -0.4345460606
C      -1.1786155291     3.2796451458     0.4625933526
C      -0.2675926863    -3.3035292433     0.4062356005
C       1.8925492499    -1.1137361826     0.8028685954
C       2.8967092442    -0.8326492407    -0.2887534466
C       3.8734728415     0.0846136531    -0.2910479761
C       4.1454997473     1.0560077918     0.8241314320
C       4.7998547052     0.2041211159    -1.4748510626
H       0.7800106672    -3.5527172715     0.5741587981
H      -0.6248679454    -3.8328450987    -0.4828443681
H      -0.8646465372    -3.6825125420     1.2436606749
H      -5.3191657632     0.9210406477    -0.4888279883
H      -4.0418294566     1.6430755456     0.5381081812
H      -4.5995473607    -0.0431788036     0.8372299302
H      -1.9156934643     4.0743058031     0.3313929126
H      -0.1801022232     3.6233729178     0.1941380972
H      -1.1830721454     2.9257789599     1.4969521862
H       1.9985528301    -2.1524001682     1.1308205614
H       2.1068305109    -0.4823219524     1.6711661494
H       2.7953192249    -1.4684478824    -1.1699343737
H       3.4446167439     0.9599359396     1.6538700103
H       4.0757169396     2.0852074516     0.4491800037
H       5.1669783573     0.9230508658     1.2054496481
H       4.7361765063     1.2079500684    -1.9161506357
H       4.5613006909    -0.5299205820    -2.2496679857
H       5.8450891642     0.0593184080    -1.1698114035
