36

C      -0.2754386059    -1.9121205342     0.2036903454
C      -1.7021008110    -1.5689490010    -0.0406916649
C      -2.1862600002    -0.1444531764    -0.0250105831
C      -1.2797771625     0.8559304531     0.2269140949
C       0.1476302108     0.4797324958     0.5297906410
C       0.6213416951    -0.9258491509     0.4231447684
O      -2.5026168739    -2.4721505466    -0.2712778003
O       0.9266698748     1.3538384583     0.8984279424
O      -3.5249587509    -0.1841671125    -0.2420501054
C      -4.3763415299     0.8767242142    -0.6529860393
O      -1.3610681076     2.2038015978     0.3540097369
C      -2.3882514531     3.0681005740    -0.1131796920
C       0.0254326041    -3.3807473779     0.1313950142
C       2.0982673606    -1.1222781183     0.6672547586
C       2.9803266462    -0.6149789264    -0.4481761445
C       3.8729553145     0.3835796102    -0.3987996407
C       4.1566844545     1.2284567803     0.8119792448
C       4.6817063543     0.7404351083    -1.6205830536
H       1.0648770508    -3.6006442263     0.3755117698
H      -0.1899191457    -3.7590724180    -0.8741788377
H      -0.6314542506    -3.9326832543     0.8109247125
H      -4.5654922290     1.5833045626     0.1611233931
H      -5.3112390122     0.3843601117    -0.9259364846
H      -3.9716657152     1.4000540137    -1.5253535189
H      -3.2924662113     2.9930371003     0.4986114442
H      -2.6239570858     2.8790756631    -1.1656862475
H      -1.9671980251     4.0696070177    -0.0099153575
H       2.2959926749    -2.1874877329     0.8221622955
H       2.3520397374    -0.6076085701     1.5990613146
H       2.8614158489    -1.1436079090    -1.3956498643
H       3.5392437265     0.9651351702     1.6709201741
H       3.9681088868     2.2852494005     0.5833880852
H       5.2153834489     1.1458054332     1.0935025999
H       4.4972298657     1.7827243103    -1.9145112664
H       4.4400282566     0.0937017346    -2.4690278250
H       5.7578125753     0.6569727117    -1.4162768711
