36

C      -0.5943761617    -1.8567385057     0.2407715288
C      -2.0014698910    -1.3745647085     0.0565214656
C      -2.2877092510     0.0699140376     0.1130966904
C      -1.2804557398     0.9735950529     0.2871220874
C       0.0924931809     0.4849171414     0.5928037767
C       0.4056345919    -0.9660357943     0.4454054148
O      -2.9030086044    -2.1796656729    -0.1833481753
O       0.9425536683     1.2660560901     1.0238406843
O      -3.5935214085     0.4479440439     0.0254749570
C      -4.0005549959     0.9486284275    -1.2655340860
O      -1.5988654012     2.2837593817     0.3183809775
C      -0.6013129178     3.3063056193     0.0697406829
C      -0.4400781273    -3.3455208705     0.1477839147
C       1.8613472469    -1.3161338494     0.6503586909
C       2.7630190997    -0.8907396467    -0.4828924222
C       3.7466849040     0.0196748944    -0.4532662434
C       4.1441078640     0.8216266325     0.7551506642
C       4.5560713905     0.3043264825    -1.6933745519
H       0.6012197396    -3.6623895369     0.2071800658
H      -0.8730971494    -3.7053448548    -0.7912311561
H      -1.0088354223    -3.8326235755     0.9479049437
H      -3.9168878092     0.1559742948    -2.0172802487
H      -3.3944916489     1.8153875784    -1.5512859237
H      -5.0440371693     1.2440001813    -1.1507579613
H       0.0856362157     2.9968960905    -0.7213789698
H      -0.0422372426     3.5239462281     0.9793322292
H      -1.1826998199     4.1732902093    -0.2493672876
H       1.9535532396    -2.3966428993     0.7965619265
H       2.1873281116    -0.8379462606     1.5794215482
H       2.5723279980    -1.3994956193    -1.4294993935
H       3.5318754591     0.6072370044     1.6312538974
H       4.0507052028     1.8943776655     0.5416447004
H       5.1982246310     0.6369555477     1.0028080009
H       4.4700421354     1.3620814197    -1.9771137283
H       4.2306910097    -0.3086338104    -2.5388873385
H       5.6230093263     0.1126501171    -1.5162185298
